Version 4
SHEET 1 3252 680
WIRE 1456 -128 1360 -128
WIRE 1856 -128 1456 -128
WIRE 2032 -128 1856 -128
WIRE 2144 -128 2112 -128
WIRE 2192 -128 2144 -128
WIRE 2288 -128 2256 -128
WIRE 2336 -128 2288 -128
WIRE 2416 -128 2336 -128
WIRE 2560 -128 2416 -128
WIRE 2832 -128 2560 -128
WIRE 2912 -128 2832 -128
WIRE 1360 -112 1360 -128
WIRE 1456 -112 1456 -128
WIRE 2560 -112 2560 -128
WIRE 2832 -112 2832 -128
WIRE 2912 -112 2912 -128
WIRE 2336 -96 2336 -128
WIRE 2416 -96 2416 -128
WIRE 1856 -80 1856 -128
WIRE 1456 -16 1456 -32
WIRE 1696 -16 1456 -16
WIRE 2032 -16 2016 -16
WIRE 2336 -16 2336 -32
WIRE 2416 -16 2416 -32
WIRE 1456 0 1456 -16
WIRE 2096 0 2096 -16
WIRE 2144 0 2144 -128
WIRE 2560 0 2560 -32
WIRE 2832 0 2832 -48
WIRE 2912 0 2912 -32
WIRE 2912 0 2832 0
WIRE 2912 48 2912 0
WIRE 1600 80 1568 80
WIRE 1696 80 1664 80
WIRE 2096 80 2016 80
WIRE 2144 112 2144 96
WIRE 2144 112 2080 112
WIRE 1456 128 1456 80
WIRE 1568 128 1568 80
WIRE 1568 128 1456 128
WIRE 2144 128 2144 112
WIRE 2672 128 2576 128
WIRE 2816 128 2752 128
WIRE 2864 128 2816 128
WIRE 2288 144 2288 -128
WIRE 2816 160 2816 128
WIRE 1456 176 1456 128
WIRE 1600 176 1456 176
WIRE 1696 176 1680 176
WIRE 2080 176 2080 112
WIRE 2080 176 2016 176
WIRE 2576 192 2576 128
WIRE 1456 272 1456 176
WIRE 1520 272 1456 272
WIRE 1600 272 1584 272
WIRE 1696 272 1680 272
WIRE 2288 272 2288 224
WIRE 2288 272 2016 272
WIRE 2288 288 2288 272
WIRE 2576 336 2576 272
WIRE 2816 336 2816 240
WIRE 2816 336 2576 336
WIRE 2912 336 2912 144
WIRE 2912 336 2816 336
WIRE 1360 384 1360 -32
WIRE 1456 384 1456 272
WIRE 1456 384 1360 384
WIRE 1856 384 1856 336
WIRE 1856 384 1456 384
WIRE 2144 384 2144 208
WIRE 2144 384 1856 384
WIRE 2288 384 2288 368
WIRE 2576 384 2576 336
WIRE 1856 416 1856 384
FLAG 2288 384 0
FLAG 1360 -128 Vin
FLAG 1856 416 0
FLAG 2336 -16 0
FLAG 2416 -16 0
FLAG 2096 0 0
FLAG 2576 384 0
FLAG 2560 0 0
SYMBOL PowerProducts\\LT3757 1856 128 R0
SYMATTR InstName U1
SYMBOL RES 1696 192 M270
WINDOW 0 32 56 VTop 0
WINDOW 3 0 56 VBottom 0
SYMATTR InstName R1
SYMATTR Value 24.3k
SYMBOL res 2272 272 R0
SYMATTR InstName R2
SYMATTR Value 11k
SYMBOL res 2272 128 R0
SYMATTR InstName R3
SYMATTR Value 71.5k
SYMBOL ind 2016 -112 R270
WINDOW 0 32 56 VTop 0
WINDOW 3 5 56 VBottom 0
SYMATTR InstName L1
SYMATTR Value 4.7µ
SYMATTR SpiceLine Ipk=7.1 Rser=0.015 Rpar=7760 Cpar=1.45p mfg="Würth Elektronik" pn="7447471047 WE-TIS 1111"
SYMBOL schottky 2192 -112 R270
WINDOW 0 32 32 VTop 0
WINDOW 3 0 32 VBottom 0
SYMATTR InstName D1
SYMATTR Value MBRS340
SYMBOL polcap 2400 -96 R0
WINDOW 3 40 36 Left 0
SYMATTR Value 6.8µ
SYMATTR InstName C1
SYMATTR SpiceLine V=400 Irms=1.96396 Rser=0.07 Lser=0
SYMBOL res 1696 288 M270
WINDOW 0 32 56 VTop 0
WINDOW 3 0 56 VBottom 0
SYMATTR InstName R4
SYMATTR Value 22k
SYMBOL cap 1584 288 M270
WINDOW 0 32 32 VTop 0
WINDOW 3 0 32 VBottom 0
SYMATTR InstName C2
SYMATTR Value 6800p
SYMATTR SpiceLine V=1000
SYMBOL VOLTAGE 1360 -128 R0
WINDOW 123 0 0 Left 0
WINDOW 39 0 0 Left 0
SYMATTR InstName V1
SYMATTR Value 5
SYMBOL cap 2032 -32 M90
WINDOW 0 0 32 VBottom 0
WINDOW 3 32 32 VTop 0
SYMATTR InstName C3
SYMATTR Value 4.7µ
SYMATTR SpiceLine V=50 Irms=0 Rser=0.0035 Lser=573p mfg="Würth Elektronik" pn="885012208094 WCAP-CSGP 1206" type="X7R"
SYMATTR Description Polarized Capacitor
SYMATTR Type polcap
SYMBOL cap 1664 64 R90
WINDOW 0 0 32 VBottom 0
WINDOW 3 32 32 VTop 0
SYMATTR InstName C4
SYMATTR Value .01µ
SYMATTR SpiceLine V=630
SYMBOL res 1440 -16 R0
SYMATTR InstName R5
SYMATTR Value 10k
SYMBOL res 1440 -128 R0
SYMATTR InstName R6
SYMATTR Value 14.7k
SYMBOL res 2128 112 R0
SYMATTR InstName R7
SYMATTR Value 25m
SYMBOL nmos 2096 0 R0
SYMATTR InstName M1
SYMATTR Value FDS6890A
SYMBOL polcap 2320 -96 R0
WINDOW 3 40 36 Left 0
SYMATTR Value 6.8µ
SYMATTR InstName C5
SYMATTR SpiceLine V=400 Irms=1.96396 Rser=0.07 Lser=0
SYMBOL res 2544 -128 R0
SYMATTR InstName Motors
SYMATTR Value 70
SYMBOL res 2800 144 R0
SYMATTR InstName R9
SYMATTR Value 10k
SYMBOL res 2768 112 R90
WINDOW 0 0 56 VBottom 2
WINDOW 3 32 56 VTop 2
SYMATTR InstName R10
SYMATTR Value 1k
SYMBOL nmos 2864 48 R0
SYMATTR InstName M2
SYMATTR Value Si2316DS
SYMBOL voltage 2576 176 R0
SYMATTR InstName V2
SYMATTR Value 0
SYMBOL schottky 2848 -48 R180
WINDOW 0 24 64 Left 2
WINDOW 3 24 0 Left 2
SYMATTR InstName D2
SYMATTR Value MBRS340
SYMATTR Description Diode
SYMATTR Type diode
SYMBOL res 2896 -128 R0
SYMATTR InstName Magnet
SYMATTR Value 27
TEXT 2400 368 Left 0 !.tran 10ms startup
